Circuit: * C:\Users\mkebbi\Documents\EAGLE\projects\Reverse_Protection(COMPLETE)\Reverse Protection - MOSFET.asc

Direct Newton iteration for .op point succeeded.

Date: Tue Nov 20 07:54:31 2018
Total elapsed time: 0.092 seconds.

tnom = 27
temp = 27
method = modified trap
totiter = 2749
traniter = 2742
tranpoints = 1125
accept = 1097
rejected = 28
matrix size = 8
fillins = 2
solver = Normal
Matrix Compiler1: 576 bytes object code size  0.1/0.1/[0.1]
Matrix Compiler2: off  [0.1]/0.1/0.1

