Circuit: * C:\Users\mkebbi\Documents\EAGLE\projects\Reverse_Protection(COMPLETE)\Reverse Protection - MOSFET.asc

Direct Newton iteration for .op point succeeded.

Date: Thu Nov 22 11:54:52 2018
Total elapsed time: 0.264 seconds.

tnom = 27
temp = 27
method = modified trap
totiter = 2580
traniter = 2563
tranpoints = 1123
accept = 1096
rejected = 27
matrix size = 9
fillins = 4
solver = Normal
Matrix Compiler1: 706 bytes object code size  0.3/0.1/[0.1]
Matrix Compiler2: off  [0.0]/0.1/0.1

