Circuit: * C:\Users\mkebbi\Documents\EAGLE\projects\Reverse_Protection(COMPLETE)\Reverse Protection - MOSFET.asc

Direct Newton iteration for .op point succeeded.

Date: Thu Nov 22 18:49:02 2018
Total elapsed time: 0.164 seconds.

tnom = 27
temp = 27
method = modified trap
totiter = 2580
traniter = 2541
tranpoints = 1112
accept = 1088
rejected = 24
matrix size = 9
fillins = 4
solver = Normal
Matrix Compiler1: 706 bytes object code size  0.4/0.2/[0.2]
Matrix Compiler2: 777 bytes object code size  0.1/0.4/[0.1]

